
**** 03/20/15 15:34:04 ***** PSpice 16.6.0 (October 2012) ***** ID# 0 ********

 ** Profile: "SCHEMATIC1-bnjkj"  [ C:\USERS\FPS7806\DESKTOP\lab02\lab2-PSpiceFiles\SCHEMATIC1\bnjkj.sim ] 


 ****     CIRCUIT DESCRIPTION


******************************************************************************




** Creating circuit file "bnjkj.cir" 
** WARNING: THIS AUTOMATICALLY GENERATED FILE MAY BE OVERWRITTEN BY SUBSEQUENT SIMULATIONS

*Libraries: 
* Profile Libraries :
* Local Libraries :
.LIB "../../../lab2-pspicefiles/lab2.lib" 
* From [PSPICE NETLIST] section of C:\Users\fps7806\cdssetup\OrCAD_PSpice/16.6.0/PSpice.ini file:
.lib "nom.lib" 

*Analysis directives: 
.TRAN  0 1ms 0 
.OPTIONS ADVCONV
.PROBE64 V(alias(*)) I(alias(*)) W(alias(*)) D(alias(*)) NOISE(alias(*)) 
.INC "..\SCHEMATIC1.net" 



**** INCLUDING SCHEMATIC1.net ****
* source LAB2
M_M1         N00112 N00112 N00116 N00116 Mbreakn  
+ L=10um  
+ W=1000um         
M_M2         N01631 N00112 N00116 N00116 Mbreakn  
+ L=10um  
+ W=1000um         
R_R1         N01604 N00263  1255 TC=0,0 
R_R2         N01671 N00263  0 TC=0,0 
----------------------------$
ERROR(ORPSIM-16144): Value may not be 0
V_V1         N00263 0 5Vdc
V_V2         0 N00116 5Vdc
M_M4         N01159 N01159 N01163 N01163 Mbreakn  
+ L=10um  
+ W=1000um         
V_V3         N01259 0 5Vdc
M_M3         N01253 N01159 N01163 N01163 Mbreakn  
+ L=10um  
+ W=1000um         
R_R3         N01159 N01259  1.8778k TC=0,0 
R_R4         N01253 N01259  2.0k TC=0,0 
V_V4         0 N01163 5Vdc
M_M5         N01671 N01604 N00112 N01529 Mbreakn  
+ L=10um  
+ W=1000um         
M_M6         N01604 N01604 N01631 N01600 Mbreakn  
+ L=10um  
+ W=1000um         

**** RESUMING bnjkj.cir ****
.END
